*SPEF "1481-1998"
*DESIGN "shifter"
*DATE "Sun Jun  1 01:27:08 2025"
*VENDOR "Synopsys, Inc."
*PROGRAM "icc2 /home/synopsys_install/icc2/W-2024.09/linux64/nwtn/bin/icc2_exec"
*VERSION "W-2024.09 Aug 25, 2024"
*DESIGN_FLOW "ICC2 SPEF DR"
*DIVIDER /
*DELIMITER :
*BUS_DELIMITER [ ]
*T_UNIT 1 NS
*C_UNIT 1 FF
*R_UNIT 1 OHM
*L_UNIT 1 HENRY

// XY_UNIT 1 UM
// PARASITIC_TECH p2 at 125.000 degree

*NAME_MAP
*1 Clock
*2 data_in[7]
*3 data_in[6]
*4 data_in[5]
*5 data_in[4]
*6 data_in[3]
*7 data_in[2]
*8 data_in[1]
*9 data_in[0]
*10 shift_amt[2]
*11 shift_amt[1]
*12 shift_amt[0]
*13 dir
*14 data_out[7]
*15 data_out[6]
*16 data_out[5]
*17 data_out[4]
*18 data_out[3]
*19 data_out[2]
*20 data_out[1]
*21 data_out[0]
*22 VDD
*23 VSS
*24 data_out_reg[7]
*25 data_out_reg[6]
*26 data_out_reg[4]
*27 data_out_reg[3]
*28 data_out_reg[2]
*29 data_out_reg[1]
*30 data_out_reg[0]
*31 data_out_reg[5]
*32 HFSINV_40_0
*33 HFSINV_253_1
*34 HFSINV_226_2
*35 HFSINV_185_3
*36 HFSINV_432_4
*37 HFSINV_649_5
*38 HFSINV_384_6
*39 HFSINV_892_7
*40 ZBUF_2617_inst_9
*41 ctmTdsLR_1_121
*42 ctmTdsLR_2_122
*43 ctmTdsLR_1_123
*44 ctmTdsLR_2_124
*45 U118
*46 U119
*47 U120
*48 U123
*49 U124
*50 U125
*51 U126
*52 U127
*53 U128
*54 U129
*55 U130
*56 U131
*57 U132
*58 U133
*59 U134
*60 U135
*61 U137
*62 U138
*63 U139
*64 U140
*65 U141
*66 U142
*67 U143
*68 U144
*69 U145
*70 U146
*71 U147
*72 U148
*73 U149
*74 U150
*75 U151
*76 U152
*77 U153
*78 U154
*79 U155
*80 U156
*81 U157
*82 U158
*83 U159
*84 U160
*85 U161
*86 U162
*87 U163
*88 U164
*89 U165
*90 U166
*91 U167
*92 U168
*93 U169
*94 U170
*95 U171
*96 U172
*97 U173
*98 U174
*99 U175
*100 U176
*101 U177
*102 U178
*103 U179
*104 U180
*105 U181
*106 U182
*107 U183
*108 U184
*109 U185
*110 U186
*111 U187
*112 U188
*113 U189
*114 U190
*115 U191
*116 U192
*117 U193
*118 U194
*119 U195
*120 U196
*121 U197
*122 U198
*123 U199
*124 U200
*125 U201
*126 HFSNET_0
*127 HFSNET_1
*128 HFSNET_2
*129 HFSNET_3
*130 HFSNET_4
*131 HFSNET_5
*132 HFSNET_6
*133 HFSNET_7
*134 ZBUF_2617_0
*135 ZBUF_2_5
*136 ZBUF_2_6
*137 tmp_net0
*138 tmp_net1
*139 n104
*140 n105
*141 n106
*142 n107
*143 n108
*144 n109
*145 n110
*146 n111
*147 n112
*148 n113
*149 n114
*150 n115
*151 n116
*152 n117
*153 n118
*154 n119
*155 n120
*156 n121
*157 n122
*158 n123
*159 n124
*160 n125
*161 n126
*162 n127
*163 n128
*164 n129
*165 n130
*166 n131
*167 n132
*168 n133
*169 n134
*170 n135
*171 n136
*172 n137
*173 n138
*174 n139
*175 n140
*176 n141
*177 n142
*178 n143
*179 n144
*180 n145
*181 n146
*182 n147
*183 n148
*184 n150
*185 n151
*186 n152
*187 n154
*188 n155
*189 n156
*190 n157
*191 n158
*192 n160
*193 n161
*194 n162
*195 n163
*196 n164
*197 n166
*198 n167
*199 n168
*200 n169
*201 n170
*202 n171
*203 n172
*204 n173
*205 n174
*206 n175
*207 n177
*208 n179
*209 n180
*210 n181
*211 n183
*212 n184
*213 shifted[7]
*214 shifted[6]
*215 shifted[4]
*216 shifted[3]
*217 shifted[2]
*218 shifted[1]
*219 shifted[0]

*PORTS

*1 I *C 7.016 23.921
*2 I *C 19.632 0.143
*3 I *C 17.504 0.143
*4 I *C 9.904 0.143
*5 I *C 6.408 0.143
*6 I *C 2.760 0.143
*7 I *C 25.441 8.384
*8 I *C 25.441 4.128
*9 I *C 21.912 0.143
*10 I *C 25.441 11.120
*11 I *C 18.872 13.889
*12 I *C 14.649 19.328
*13 I *C 14.649 18.720
*14 O *C 12.032 23.921
*15 O *C 7.472 23.921
*16 O *C 10.056 23.921
*17 O *C 5.496 23.921
*18 O *C 0.143 17.504
*19 O *C 0.143 12.944
*20 O *C 0.143 7.776
*21 O *C 5.648 0.143
*22 I *C 12.792 12.032
*23 I *C 12.792 12.032

*D_NET *126 0.6483657 //LENGTH 7.158 LUMPCC 0 DR

*CONN
*I *32:Y O *L 0 *C 8.992 7.624
*I *108:A3 I *L 0.535888 *C 6.864 6.104
*I *73:A2 I *L 0.483357 *C 4.457 6.281
*N *126:3 *C 4.721 6.256
*N *126:4 *C 4.736 6.270
*N *126:5 *C 4.736 6.851
*N *126:6 *C 4.750 6.864
*N *126:7 *C 6.864 6.118
*N *126:8 *C 6.864 6.851
*N *126:9 *C 6.864 6.864
*N *126:10 *C 8.979 6.864
*N *126:11 *C 8.992 6.878
*N *126:12 *C 8.992 7.611

*CAP
0 *32:Y 0.001
1 *108:A3 0.001
2 *73:A2 0.01868046
3 *126:3 0.01708633
4 *126:4 0.03420988
5 *126:5 0.03402497
6 *126:6 0.09812211
7 *126:7 0.04449666
8 *126:8 0.04564019
9 *126:9 0.1820623
10 *126:10 0.08216118
11 *126:11 0.04551257
12 *126:12 0.04436904

*RES
0 *32:Y *126:12 1
1 *126:11 *126:10 0.5
2 *126:10 *126:9 3.775893
3 *126:12 *126:11 1.308929
4 *126:8 *126:7 1.308929
5 *126:9 *126:8 0.5
6 *126:9 *126:6 3.775893
7 *126:7 *108:A3 1
8 *126:5 *126:4 1.0375
9 *126:6 *126:5 0.5
10 *126:3 *73:A2 0.5280001
11 *126:4 *126:3 1

*END

*D_NET *1 1.580489 //LENGTH 24.793 LUMPCC 0 DR

*CONN
*P *1 I *L 0 *C 7.016 23.806
*I *24:CLK I *L 0.714381 *C 7.472 21.912
*I *26:CLK I *L 0.714381 *C 2.912 21.912
*I *27:CLK I *L 0.714381 *C 2.912 18.872
*I *28:CLK I *L 0.714381 *C 2.912 15.528
*I *29:CLK I *L 0.714381 *C 2.912 15.224
*I *25:CLK I *L 0.714381 *C 7.472 18.872
*I *31:CLK I *L 0.717204 *C 7.928 18.568
*I *30:CLK I *L 0.714381 *C 7.731 15.224
*N *1:9 *C 7.594 15.072
*N *1:10 *C 7.776 15.224
*N *1:11 *C 7.776 15.212
*N *1:12 *C 7.776 15.072
*N *1:13 *C 7.764 15.072
*N *1:14 *C 7.776 15.086
*N *1:15 *C 7.928 18.556
*N *1:16 *C 7.928 18.416
*N *1:17 *C 7.916 18.416
*N *1:18 *C 7.776 18.416
*N *1:19 *C 7.776 18.416
*N *1:20 *C 7.472 18.873
*N *1:21 *C 7.472 19.011
*N *1:22 *C 7.486 19.024
*N *1:23 *C 7.763 19.024
*N *1:24 *C 7.776 19.024
*N *1:25 *C 2.730 15.680
*N *1:26 *C 2.912 15.224
*N *1:27 *C 2.912 15.527
*N *1:28 *C 2.912 15.668
*N *1:29 *C 2.900 15.680
*N *1:30 *C 2.912 15.694
*N *1:31 *C 2.730 19.024
*N *1:32 *C 2.912 18.872
*N *1:33 *C 2.912 19.012
*N *1:34 *C 2.900 19.024
*N *1:35 *C 2.912 19.024
*N *1:36 *C 2.912 21.747
*N *1:37 *C 2.912 21.899
*N *1:38 *C 2.912 21.760
*N *1:39 *C 2.925 21.760
*N *1:40 *C 7.472 21.911
*N *1:41 *C 7.472 21.774
*N *1:42 *C 7.472 21.760
*N *1:43 *C 7.763 21.760
*N *1:44 *C 7.776 21.760
*N *1:45 *C 7.776 23.571
*N *1:46 *C 7.763 23.584
*N *1:47 *C 7.030 23.584
*N *1:48 *C 7.016 23.598

*CAP
0 *1 0.01152612
1 *24:CLK 0.001
2 *26:CLK 0.001
3 *27:CLK 0.001
4 *28:CLK 0.001
5 *29:CLK 0.001
6 *25:CLK 0.001
7 *31:CLK 0.001
8 *30:CLK 0.008574571
9 *1:9 0.01017435
10 *1:10 0.006980445
11 *1:11 0.01050007
12 *1:12 0.01031516
13 *1:13 0.00661638
14 *1:14 0.1020548
15 *1:15 0.00804681
16 *1:16 0.009190341
17 *1:17 0.007863347
18 *1:18 0.007863449
19 *1:19 0.121267
20 *1:20 0.007128578
21 *1:21 0.008272109
22 *1:22 0.01263723
23 *1:23 0.01263733
24 *1:24 0.1055301
25 *1:25 0.01002768
26 *1:26 0.02481579
27 *1:27 0.03852571
28 *1:28 0.01193089
29 *1:29 0.006469709
30 *1:30 0.1017416
31 *1:31 0.009905546
32 *1:32 0.006082376
33 *1:33 0.007225908
34 *1:34 0.006347579
35 *1:35 0.1887036
36 *1:36 0.08518309
37 *1:37 0.006266524
38 *1:38 0.007410056
39 *1:39 0.1471917
40 *1:40 0.005779681
41 *1:41 0.006923212
42 *1:42 0.161841
43 *1:43 0.01109139
44 *1:44 0.1449478
45 *1:45 0.056851
46 *1:46 0.02565115
47 *1:47 0.02565105
48 *1:48 0.009747087

*RES
0 *1 *1:48 0.3723214
1 *1:18 *1:17 0.2325
2 *1:19 *1:18 0.5
3 *1:19 *1:14 5.947322
4 *1:16 *1:15 0.2325
5 *1:17 *1:16 0.5
6 *1:15 *31:CLK 1
7 *1:13 *1:12 0.5
8 *1:13 *1:9 0.2825
9 *1:14 *1:13 0.5
10 *1:12 *1:11 0.2325
11 *1:10 *30:CLK 0.09166667
12 *1:11 *1:10 1
13 *1:43 *1:42 0.5187501
14 *1:44 *1:43 0.5
15 *1:44 *1:24 4.885715
16 *1:41 *1:40 0.2455357
17 *1:42 *1:41 0.5
18 *1:42 *1:39 8.118751
19 *1:40 *24:CLK 1
20 *1:23 *1:22 0.4946429
21 *1:24 *1:23 0.5
22 *1:24 *1:19 1.085714
23 *1:21 *1:20 0.2455357
24 *1:22 *1:21 0.5
25 *1:20 *25:CLK 1
26 *1:46 *1:45 0.5
27 *1:45 *1:44 3.233036
28 *1:48 *1:47 0.5
29 *1:47 *1:46 1.308929
30 *1:38 *1:37 0.2325
31 *1:39 *1:38 0.5
32 *1:39 *1:36 0.5
33 *1:37 *26:CLK 1
34 *1:36 *1:35 4.861607
35 *1:27 *28:CLK 1
36 *1:27 *1:26 0.5410715
37 *1:26 *29:CLK 1
38 *1:34 *1:33 0.5
39 *1:34 *1:31 0.2825
40 *1:35 *1:34 0.5
41 *1:35 *1:30 5.947322
42 *1:33 *1:32 0.2325
43 *1:32 *27:CLK 1
44 *1:29 *1:28 0.5
45 *1:29 *1:25 0.2825
46 *1:30 *1:29 0.5
47 *1:28 *1:27 0.2341667

*END

*D_NET *2 2.404855 //LENGTH 27.483 LUMPCC 0 DR

*CONN
*P *2 I *L 0 *C 19.632 0.258
*I *45:A2 I *L 0.524564 *C 19.632 2.608
*I *64:A2 I *L 0.567721 *C 19.632 4.584
*I *86:A2 I *L 0.567721 *C 19.632 6.104
*I *48:A4 I *L 0.521594 *C 12.640 3.064
*I *111:A2 I *L 0.567721 *C 9.296 11.272
*I *124:A1 I *L 0.564384 *C 13.096 11.424
*N *2:7 *C 13.096 11.423
*N *2:8 *C 13.096 10.512
*N *2:9 *C 9.296 11.258
*N *2:10 *C 9.296 10.526
*N *2:11 *C 9.309 10.512
*N *2:12 *C 12.931 10.512
*N *2:13 *C 12.944 10.512
*N *2:14 *C 12.944 9.448
*N *2:15 *C 12.792 9.448
*N *2:16 *C 12.640 3.050
*N *2:17 *C 12.640 2.912
*N *2:18 *C 12.792 2.925
*N *2:19 *C 12.806 2.912
*N *2:20 *C 19.632 6.091
*N *2:21 *C 19.632 4.584
*N *2:22 *C 19.632 4.432
*N *2:23 *C 19.480 4.432
*N *2:24 *C 19.480 2.925
*N *2:25 *C 19.480 2.912
*N *2:26 *C 19.632 2.912
*N *2:27 *C 19.632 2.609
*N *2:28 *C 19.632 2.595

*CAP
0 *2 0.0827527
1 *45:A2 0.001
2 *64:A2 0.001
3 *86:A2 0.001
4 *48:A4 0.001
5 *111:A2 0.001
6 *124:A1 0.001
7 *2:7 0.05565932
8 *2:8 0.06622876
9 *2:9 0.03982402
10 *2:10 0.04096756
11 *2:11 0.1736771
12 *2:12 0.1736771
13 *2:13 0.06858466
14 *2:14 0.07088862
15 *2:15 0.2997606
16 *2:16 0.006969808
17 *2:17 0.01733031
18 *2:18 0.2972476
19 *2:19 0.278172
20 *2:20 0.08091015
21 *2:21 0.09085532
22 *2:22 0.01710189
23 *2:23 0.08004082
24 *2:24 0.07110506
25 *2:25 0.2843431
26 *2:26 0.01632909
27 *2:27 0.008379007
28 *2:28 0.0780511

*RES
0 *2 *2:28 4.172321
1 *2:20 *86:A2 1
2 *2:21 *64:A2 1
3 *2:21 *2:20 2.690179
4 *2:28 *45:A2 1
5 *2:28 *2:27 0.5
6 *2:27 *2:26 0.5410715
7 *2:24 *2:23 2.690179
8 *2:25 *2:24 0.5
9 *2:25 *2:19 11.91875
10 *2:7 *124:A1 1
11 *2:18 *2:17 0.2714286
12 *2:18 *2:15 11.64732
13 *2:19 *2:18 0.5
14 *2:16 *48:A4 1
15 *2:13 *2:12 0.5
16 *2:13 *2:8 0.2714286
17 *2:12 *2:11 6.466072
18 *2:10 *2:9 1.308929
19 *2:11 *2:10 0.5
20 *2:9 *111:A2 1
21 *2:17 *2:16 0.2473214
22 *2:15 *2:14 0.2714286
23 *2:14 *2:13 1.9
24 *2:8 *2:7 1.626786
25 *2:23 *2:22 0.2714286
26 *2:22 *2:21 0.2714286
27 *2:26 *2:25 0.2714286

*END

*D_NET *3 1.283644 //LENGTH 15.225 LUMPCC 0 DR

*CONN
*P *3 I *L 0 *C 17.504 0.272
*I *117:A1 I *L 0.564384 *C 15.832 5.952
*I *120:A1 I *L 0.564384 *C 13.096 4.736
*I *48:A2 I *L 0.552574 *C 13.248 2.912
*I *45:A1 I *L 0.54213 *C 18.568 3.064
*I *47:A2 I *L 0.524564 *C 17.352 2.608
*N *3:6 *C 18.568 3.050
*N *3:7 *C 18.568 2.622
*N *3:8 *C 18.555 2.608
*N *3:9 *C 13.248 2.899
*N *3:10 *C 13.096 4.735
*N *3:11 *C 13.096 2.608
*N *3:12 *C 13.248 2.622
*N *3:13 *C 13.261 2.608
*N *3:14 *C 15.832 5.951
*N *3:15 *C 15.832 2.622
*N *3:16 *C 15.832 2.608
*N *3:17 *C 17.352 2.608
*N *3:18 *C 17.351 2.608
*N *3:19 *C 17.200 2.608
*N *3:20 *C 17.200 1.848
*N *3:21 *C 17.504 1.848

*CAP
0 *3 0.05239542
1 *117:A1 0.001
2 *120:A1 0.001
3 *48:A2 0.001
4 *45:A1 0.001
5 *47:A2 0.001
6 *3:6 0.01675594
7 *3:7 0.01789948
8 *3:8 0.04571928
9 *3:9 0.0159138
10 *3:10 0.1155222
11 *3:11 0.1260329
12 *3:12 0.02464548
13 *3:13 0.1162469
14 *3:14 0.1506979
15 *3:15 0.1518414
16 *3:16 0.1778435
17 *3:17 0.1073159
18 *3:18 0.00272003
19 *3:19 0.04049752
20 *3:20 0.04863856
21 *3:21 0.06795809

*RES
0 *3 *3:21 2.814286
1 *3:7 *3:6 0.7660714
2 *3:8 *3:7 0.5
3 *3:6 *45:A1 1
4 *3:18 *3:17 0.5
5 *3:18 *47:A2 1
6 *3:17 *3:16 2.714286
7 *3:17 *3:8 2.147322
8 *3:15 *3:14 5.945536
9 *3:16 *3:15 0.5
10 *3:16 *3:13 4.590179
11 *3:14 *117:A1 1
12 *3:9 *48:A2 1
13 *3:12 *3:11 0.2714286
14 *3:12 *3:9 0.4946429
15 *3:13 *3:12 0.5
16 *3:10 *120:A1 1
17 *3:11 *3:10 3.798214
18 *3:20 *3:19 1.357143
19 *3:19 *3:18 0.2696429
20 *3:21 *3:20 0.5428572

*END

*D_NET *4 0.9615708 //LENGTH 13.809 LUMPCC 0 DR

*CONN
*P *4 I *L 0 *C 9.904 0.258
*I *113:A1 I *L 0.564384 *C 8.536 2.608
*I *121:A1 I *L 0.564384 *C 10.968 2.608
*I *48:A3 I *L 0.527375 *C 12.640 2.760
*I *47:A1 I *L 0.54213 *C 16.288 3.064
*I *33:A I *L 1.468433 *C 9.904 2.912
*N *4:6 *C 9.904 2.899
*N *4:7 *C 16.288 3.050
*N *4:8 *C 16.288 2.317
*N *4:9 *C 16.274 2.304
*N *4:10 *C 12.640 2.747
*N *4:11 *C 12.640 2.317
*N *4:12 *C 12.640 2.304
*N *4:13 *C 11.728 2.304
*N *4:14 *C 11.728 2.000
*N *4:15 *C 10.968 2.607
*N *4:16 *C 10.968 2.014
*N *4:17 *C 10.968 2.000
*N *4:18 *C 8.536 2.607
*N *4:19 *C 8.536 2.014
*N *4:20 *C 8.550 2.000
*N *4:21 *C 9.904 2.000
*N *4:22 *C 9.904 2.000

*CAP
0 *4 0.05569287
1 *113:A1 0.001
2 *121:A1 0.001
3 *48:A3 0.001
4 *47:A1 0.001
5 *33:A 0.001
6 *4:6 0.03193708
7 *4:7 0.02890733
8 *4:8 0.03005086
9 *4:9 0.1350516
10 *4:10 0.02090332
11 *4:11 0.02204685
12 *4:12 0.1753516
13 *4:13 0.05076043
14 *4:14 0.0378475
15 *4:15 0.02368946
16 *4:16 0.02483299
17 *4:17 0.0591323
18 *4:18 0.02575395
19 *4:19 0.02689748
20 *4:20 0.04270868
21 *4:21 0.07623297
22 *4:22 0.08877348

*RES
0 *4 *4:22 3.110714
1 *4:8 *4:7 1.308929
2 *4:9 *4:8 0.5
3 *4:7 *47:A1 1
4 *4:11 *4:10 0.7660714
5 *4:12 *4:11 0.5
6 *4:12 *4:9 6.49018
7 *4:10 *48:A3 1
8 *4:16 *4:15 1.059821
9 *4:17 *4:16 0.5
10 *4:17 *4:14 1.357143
11 *4:15 *121:A1 1
12 *4:6 *33:A 1
13 *4:22 *4:21 0.5
14 *4:22 *4:6 1.604464
15 *4:21 *4:20 2.41875
16 *4:21 *4:17 1.9
17 *4:19 *4:18 1.059822
18 *4:20 *4:19 0.5
19 *4:18 *113:A1 1
20 *4:14 *4:13 0.5428572
21 *4:13 *4:12 1.628572

*END

*D_NET *5 1.883817 //LENGTH 23.402 LUMPCC 0 DR

*CONN
*P *5 I *L 0 *C 6.408 0.258
*I *35:A I *L 1.468433 *C 7.472 2.912
*I *44:A3 I *L 0.475427 *C 10.360 5.952
*I *112:A1 I *L 0.564384 *C 9.934 4.761
*I *48:A1 I *L 0.524919 *C 13.552 3.520
*I *94:A1 I *L 0.564384 *C 17.018 5.977
*I *84:A1 I *L 0.564384 *C 15.528 4.736
*N *5:7 *C 15.528 4.735
*N *5:8 *C 16.455 5.952
*N *5:9 *C 16.440 5.939
*N *5:10 *C 16.440 4.142
*N *5:11 *C 16.427 4.128
*N *5:12 *C 15.542 4.128
*N *5:13 *C 15.528 4.128
*N *5:14 *C 15.528 3.230
*N *5:15 *C 15.514 3.216
*N *5:16 *C 13.552 3.506
*N *5:17 *C 13.552 3.230
*N *5:18 *C 13.552 3.216
*N *5:19 *C 10.193 4.736
*N *5:20 *C 10.208 4.723
*N *5:21 *C 10.208 4.128
*N *5:22 *C 10.360 5.939
*N *5:23 *C 10.360 4.142
*N *5:24 *C 10.347 4.128
*N *5:25 *C 9.766 4.128
*N *5:26 *C 9.752 4.128
*N *5:27 *C 9.600 4.128
*N *5:28 *C 9.600 3.230
*N *5:29 *C 9.600 3.216
*N *5:30 *C 7.486 3.216
*N *5:31 *C 7.472 3.203
*N *5:32 *C 7.472 2.912
*N *5:33 *C 7.472 2.317
*N *5:34 *C 7.459 2.304
*N *5:35 *C 6.421 2.304
*N *5:36 *C 6.408 2.291

*CAP
0 *5 0.06975372
1 *35:A 0.001
2 *44:A3 0.001
3 *112:A1 0.0183501
4 *48:A1 0.001
5 *94:A1 0.03574138
6 *84:A1 0.001
7 *5:7 0.02706391
8 *5:8 0.03414725
9 *5:9 0.07547507
10 *5:10 0.07529016
11 *5:11 0.03689119
12 *5:12 0.03689119
13 *5:13 0.07328801
14 *5:14 0.04330153
15 *5:15 0.08540025
16 *5:16 0.01438845
17 *5:17 0.01553198
18 *5:18 0.2318078
19 *5:19 0.01675597
20 *5:20 0.03238516
21 *5:21 0.05182536
22 *5:22 0.08852845
23 *5:23 0.08967198
24 *5:24 0.02760114
25 *5:25 0.02760114
26 *5:26 0.02265163
27 *5:27 0.05872493
28 *5:28 0.05036131
29 *5:29 0.230457
30 *5:30 0.08404944
31 *5:31 0.01136895
32 *5:32 0.03396324
33 *5:33 0.02195879
34 *5:34 0.04530791
35 *5:35 0.04530791
36 *5:36 0.06797468

*RES
0 *5 *5:36 3.629464
1 *5:7 *84:A1 1
2 *5:13 *5:12 0.5
3 *5:13 *5:7 1.083929
4 *5:12 *5:11 1.580357
5 *5:10 *5:9 3.208929
6 *5:11 *5:10 0.5
7 *5:8 *94:A1 1.126
8 *5:9 *5:8 1
9 *5:14 *5:13 1.604464
10 *5:15 *5:14 0.5
11 *5:17 *5:16 0.4946429
12 *5:18 *5:17 0.5
13 *5:18 *5:15 3.504464
14 *5:16 *48:A1 1
15 *5:19 *112:A1 0.5180001
16 *5:20 *5:19 1
17 *5:26 *5:25 0.5
18 *5:26 *5:21 0.8142858
19 *5:25 *5:24 1.0375
20 *5:23 *5:22 3.208928
21 *5:24 *5:23 0.5
22 *5:22 *44:A3 1
23 *5:28 *5:27 1.604464
24 *5:29 *5:28 0.5
25 *5:29 *5:18 7.057143
26 *5:31 *5:30 0.5
27 *5:30 *5:29 3.775893
28 *5:32 *35:A 1
29 *5:32 *5:31 0.5187501
30 *5:33 *5:32 1.061607
31 *5:34 *5:33 0.5
32 *5:36 *5:35 0.5
33 *5:35 *5:34 1.851786
34 *5:27 *5:26 0.2714286
35 *5:21 *5:20 1.061607

*END

*D_NET *6 2.286948 //LENGTH 26.730 LUMPCC 0 DR

*CONN
*P *6 I *L 0 *C 2.760 0.258
*I *34:A I *L 1.468433 *C 4.006 2.912
*I *61:A1 I *L 0.564384 *C 5.496 5.952
*I *90:A1 I *L 0.524919 *C 9.752 10.208
*I *42:A1 I *L 0.546332 *C 13.400 9.296
*I *85:A1 I *L 0.564384 *C 14.619 8.107
*I *93:A1 I *L 0.564384 *C 15.194 9.321
*N *6:7 *C 14.783 9.296
*N *6:8 *C 14.768 9.283
*N *6:9 *C 14.756 8.080
*N *6:10 *C 14.768 8.094
*N *6:11 *C 14.768 8.992
*N *6:12 *C 14.755 8.992
*N *6:13 *C 13.400 9.283
*N *6:14 *C 13.400 9.005
*N *6:15 *C 13.400 8.992
*N *6:16 *C 9.752 10.194
*N *6:17 *C 9.752 9.005
*N *6:18 *C 9.752 8.992
*N *6:19 *C 5.510 8.992
*N *6:20 *C 5.496 8.979
*N *6:21 *C 5.496 5.966
*N *6:22 *C 5.482 5.952
*N *6:23 *C 4.598 5.952
*N *6:24 *C 4.584 5.939
*N *6:25 *C 4.569 2.912
*N *6:26 *C 4.584 2.925
*N *6:27 *C 4.584 3.520
*N *6:28 *C 4.571 3.520
*N *6:29 *C 2.622 3.520
*N *6:30 *C 2.608 3.506
*N *6:31 *C 2.608 2.304
*N *6:32 *C 2.760 2.304

*CAP
0 *6 0.07730942
1 *34:A 0.03317766
2 *61:A1 0.001
3 *90:A1 0.001
4 *42:A1 0.001
5 *85:A1 0.01447308
6 *93:A1 0.02374432
7 *6:7 0.02215019
8 *6:8 0.01308821
9 *6:9 0.01287895
10 *6:10 0.03795411
11 *6:11 0.05245154
12 *6:12 0.05594624
13 *6:13 0.01957837
14 *6:14 0.0207219
15 *6:15 0.2176361
16 *6:16 0.0544451
17 *6:17 0.05558863
18 *6:18 0.3483219
19 *6:19 0.186632
20 *6:20 0.1308278
21 *6:21 0.1264227
22 *6:22 0.03649131
23 *6:23 0.03797383
24 *6:24 0.1342009
25 *6:25 0.03158354
26 *6:26 0.03224963
27 *6:27 0.1680446
28 *6:28 0.07139543
29 *6:29 0.07139543
30 *6:30 0.05186303
31 *6:31 0.06086735
32 *6:32 0.08453472

*RES
0 *6 *6:32 3.653571
1 *6:7 *93:A1 0.8220001
2 *6:8 *6:7 1
3 *6:9 *85:A1 0.2283334
4 *6:10 *6:9 1
5 *6:11 *6:10 1.604464
6 *6:11 *6:8 0.51875
7 *6:12 *6:11 0.5
8 *6:14 *6:13 0.4946429
9 *6:15 *6:14 0.5
10 *6:15 *6:12 2.41875
11 *6:13 *42:A1 1
12 *6:17 *6:16 2.123214
13 *6:18 *6:17 0.5
14 *6:18 *6:15 6.514287
15 *6:16 *90:A1 1
16 *6:20 *6:19 0.5
17 *6:19 *6:18 7.575893
18 *6:21 *61:A1 1
19 *6:21 *6:20 5.380358
20 *6:22 *6:21 0.5
21 *6:24 *6:23 0.5
22 *6:23 *6:22 1.580357
23 *6:25 *34:A 1.126
24 *6:26 *6:25 1
25 *6:27 *6:26 1.061607
26 *6:27 *6:24 4.31875
27 *6:28 *6:27 0.5
28 *6:30 *6:29 0.5
29 *6:29 *6:28 3.480357
30 *6:31 *6:30 2.147322
31 *6:32 *6:31 0.2714286

*END

*D_NET *7 2.082432 //LENGTH 25.837 LUMPCC 0 DR

*CONN
*P *7 I *L 0 *C 25.326 8.384
*I *46:A1 I *L 0.54213 *C 23.128 7.624
*I *32:A I *L 1.468433 *C 9.448 7.776
*I *90:A3 I *L 0.527375 *C 8.840 9.448
*I *53:A1 I *L 0.564384 *C 6.259 8.107
*I *62:A2 I *L 0.483357 *C 4.305 9.625
*N *7:6 *C 4.873 9.600
*N *7:7 *C 4.888 9.587
*N *7:8 *C 4.888 8.398
*N *7:9 *C 4.902 8.384
*N *7:10 *C 6.396 8.080
*N *7:11 *C 6.408 8.094
*N *7:12 *C 6.408 8.370
*N *7:13 *C 6.408 8.384
*N *7:14 *C 8.840 9.434
*N *7:15 *C 8.840 8.398
*N *7:16 *C 8.840 8.384
*N *7:17 *C 9.448 7.790
*N *7:18 *C 9.448 8.370
*N *7:19 *C 9.448 8.384
*N *7:20 *C 23.128 7.638
*N *7:21 *C 23.128 8.370
*N *7:22 *C 23.128 8.384

*CAP
0 *7 0.06650255
1 *46:A1 0.001
2 *32:A 0.001
3 *90:A3 0.001
4 *53:A1 0.01194237
5 *62:A2 0.03181043
6 *7:6 0.0302163
7 *7:7 0.0712313
8 *7:8 0.07104639
9 *7:9 0.06124565
10 *7:10 0.01034825
11 *7:11 0.0277382
12 *7:12 0.02755329
13 *7:13 0.1679898
14 *7:14 0.04681559
15 *7:15 0.04795912
16 *7:16 0.1326728
17 *7:17 0.02784585
18 *7:18 0.02898939
19 *7:19 0.5577685
20 *7:20 0.03102494
21 *7:21 0.03216847
22 *7:22 0.5965633

*RES
0 *7 *7:22 3.925
1 *7:21 *7:20 1.308929
2 *7:22 *7:21 0.5
3 *7:22 *7:19 24.42857
4 *7:20 *46:A1 1
5 *7:18 *7:17 1.0375
6 *7:19 *7:18 0.5
7 *7:19 *7:16 1.085714
8 *7:17 *32:A 1
9 *7:15 *7:14 1.851786
10 *7:16 *7:15 0.5
11 *7:16 *7:13 4.342857
12 *7:14 *90:A3 1
13 *7:12 *7:11 0.4946429
14 *7:13 *7:12 0.5
15 *7:13 *7:9 2.690179
16 *7:10 *53:A1 0.2283333
17 *7:11 *7:10 1
18 *7:8 *7:7 2.123214
19 *7:9 *7:8 0.5
20 *7:6 *62:A2 1.136
21 *7:7 *7:6 1

*END

*D_NET *8 2.574902 //LENGTH 31.772 LUMPCC 0 DR

*CONN
*P *8 I *L 0 *C 25.326 4.128
*I *46:A2 I *L 0.524564 *C 22.064 8.080
*I *90:A2 I *L 0.552574 *C 9.448 9.600
*I *51:A1 I *L 0.564384 *C 5.344 9.296
*I *60:A1 I *L 0.564384 *C 3.976 11.424
*I *105:A1 I *L 0.54213 *C 23.128 9.752
*N *8:6 *C 23.128 9.739
*N *8:7 *C 23.128 9.296
*N *8:8 *C 3.976 11.423
*N *8:9 *C 3.976 9.309
*N *8:10 *C 3.990 9.296
*N *8:11 *C 5.344 9.164
*N *8:12 *C 5.344 9.284
*N *8:13 *C 5.344 9.296
*N *8:14 *C 9.448 9.587
*N *8:15 *C 9.448 9.309
*N *8:16 *C 9.448 9.296
*N *8:17 *C 22.811 9.296
*N *8:18 *C 22.824 9.296
*N *8:19 *C 22.050 8.080
*N *8:20 *C 21.913 8.080
*N *8:21 *C 21.925 8.080
*N *8:22 *C 22.811 8.080
*N *8:23 *C 22.824 8.080
*N *8:24 *C 22.824 4.142
*N *8:25 *C 22.838 4.128

*CAP
0 *8 0.0711959
1 *46:A2 0.001
2 *90:A2 0.001
3 *51:A1 0.001
4 *60:A1 0.001
5 *105:A1 0.001
6 *8:6 0.01819784
7 *8:7 0.0336846
8 *8:8 0.1287211
9 *8:9 0.1298646
10 *8:10 0.05127683
11 *8:11 0.01285721
12 *8:12 0.006673083
13 *8:13 0.2253378
14 *8:14 0.01430735
15 *8:15 0.01545088
16 *8:16 0.7377177
17 *8:17 0.5621743
18 *8:18 0.06019752
19 *8:19 0.005666648
20 *8:20 0.006810179
21 *8:21 0.04033816
22 *8:22 0.04033816
23 *8:23 0.1945442
24 *8:24 0.1451318
25 *8:25 0.06941687

*RES
0 *8 *8:25 4.44375
1 *8:6 *105:A1 1
2 *8:24 *8:23 7.033036
3 *8:25 *8:24 0.5
4 *8:23 *8:22 0.5
5 *8:23 *8:18 2.171429
6 *8:22 *8:21 1.580357
7 *8:20 *8:19 0.2455357
8 *8:21 *8:20 0.5
9 *8:19 *46:A2 1
10 *8:18 *8:17 0.5
11 *8:18 *8:7 0.5428571
12 *8:17 *8:16 23.86161
13 *8:15 *8:14 0.4946429
14 *8:16 *8:15 0.5
15 *8:16 *8:13 7.328572
16 *8:14 *90:A2 1
17 *8:12 *51:A1 1
18 *8:12 *8:11 0.1991667
19 *8:13 *8:12 0.5
20 *8:13 *8:10 2.41875
21 *8:9 *8:8 3.774107
22 *8:10 *8:9 0.5
23 *8:8 *60:A1 1
24 *8:7 *8:6 0.7901786

*END

*D_NET *9 2.471442 //LENGTH 35.551 LUMPCC 0 DR

*CONN
*P *9 I *L 0 *C 21.912 0.258
*I *105:A2 I *L 0.524564 *C 22.064 9.296
*I *95:A3 I *L 0.535888 *C 19.480 9.476
*I *90:A4 I *L 0.521594 *C 8.840 9.752
*I *58:A1 I *L 0.564384 *C 4.280 12.640
*I *69:A2 I *L 0.567721 *C 5.040 11.272
*I *80:A2 I *L 0.567721 *C 22.368 4.584
*N *9:7 *C 22.368 4.572
*N *9:8 *C 22.368 4.432
*N *9:9 *C 22.355 4.432
*N *9:10 *C 5.040 11.286
*N *9:11 *C 5.040 11.715
*N *9:12 *C 5.027 11.728
*N *9:13 *C 4.280 12.639
*N *9:14 *C 4.280 11.742
*N *9:15 *C 4.293 11.728
*N *9:16 *C 4.446 11.728
*N *9:17 *C 4.432 11.715
*N *9:18 *C 4.432 10.526
*N *9:19 *C 4.446 10.512
*N *9:20 *C 8.675 10.512
*N *9:21 *C 8.688 10.498
*N *9:22 *C 8.840 9.766
*N *9:23 *C 8.840 10.194
*N *9:24 *C 8.828 10.208
*N *9:25 *C 8.688 10.208
*N *9:26 *C 8.688 10.208
*N *9:27 *C 8.992 10.208
*N *9:28 *C 8.992 9.309
*N *9:29 *C 9.005 9.296
*N *9:30 *C 19.619 9.296
*N *9:31 *C 19.632 9.283
*N *9:32 *C 19.632 9.005
*N *9:33 *C 19.620 9.448
*N *9:34 *C 19.632 9.434
*N *9:35 *C 19.632 9.005
*N *9:36 *C 19.646 8.992
*N *9:37 *C 22.064 9.283
*N *9:38 *C 22.064 9.005
*N *9:39 *C 22.050 8.992
*N *9:40 *C 22.064 8.979
*N *9:41 *C 22.064 4.446
*N *9:42 *C 22.065 4.432
*N *9:43 *C 22.064 4.431
*N *9:44 *C 22.064 2.304
*N *9:45 *C 21.912 2.304

*CAP
0 *9 0.07783889
1 *105:A2 0.001
2 *95:A3 0.01188238
3 *90:A4 0.001
4 *58:A1 0.001
5 *69:A2 0.001
6 *80:A2 0.001
7 *9:7 0.009355973
8 *9:8 0.01049951
9 *9:9 0.01284328
10 *9:10 0.01954017
11 *9:11 0.0206837
12 *9:12 0.0258716
13 *9:13 0.04967103
14 *9:14 0.05081457
15 *9:15 0.008380819
16 *9:16 0.03603156
17 *9:17 0.03951228
18 *9:18 0.03951243
19 *9:19 0.1524653
20 *9:20 0.1524653
21 *9:21 0.01376186
22 *9:22 0.02147318
23 *9:23 0.02261671
24 *9:24 0.009616409
25 *9:25 0.009616511
26 *9:26 0.02651827
27 *9:27 0.05146991
28 *9:28 0.03693456
29 *9:29 0.332859
30 *9:30 0.332859
31 *9:31 0.01202711
32 *9:32 0.01202696
33 *9:33 0.01028826
34 *9:34 0.02075376
35 *9:35 0.02056886
36 *9:36 0.09985257
37 *9:37 0.02088763
38 *9:38 0.02203116
39 *9:39 0.09985257
40 *9:40 0.1390121
41 *9:41 0.1390121
42 *9:42 0.009581815
43 *9:43 0.09527214
44 *9:44 0.1054377
45 *9:45 0.08474287

*RES
0 *9 *9:45 3.653571
1 *9:8 *9:7 0.2325
2 *9:9 *9:8 0.5
3 *9:7 *80:A2 1
4 *9:38 *9:37 0.4946429
5 *9:39 *9:38 0.5
6 *9:39 *9:36 4.294643
7 *9:37 *105:A2 1
8 *9:40 *9:39 0.5
9 *9:42 *9:41 0.5
10 *9:42 *9:9 0.5169643
11 *9:41 *9:40 8.094644
12 *9:43 *9:42 0.5
13 *9:35 *9:34 0.7660714
14 *9:36 *9:35 0.5
15 *9:36 *9:32 0.5
16 *9:33 *95:A3 0.2325
17 *9:34 *9:33 1
18 *9:32 *9:31 0.4946429
19 *9:31 *9:30 0.5
20 *9:30 *9:29 18.95179
21 *9:28 *9:27 1.604464
22 *9:29 *9:28 0.5
23 *9:25 *9:24 0.2325
24 *9:26 *9:25 0.5
25 *9:26 *9:21 0.5187501
26 *9:23 *9:22 0.7660714
27 *9:24 *9:23 0.5
28 *9:22 *90:A4 1
29 *9:11 *9:10 0.7660714
30 *9:12 *9:11 0.5
31 *9:10 *69:A2 1
32 *9:21 *9:20 0.5
33 *9:20 *9:19 7.551786
34 *9:18 *9:17 2.123214
35 *9:19 *9:18 0.5
36 *9:16 *9:15 0.255
37 *9:16 *9:12 1.0375
38 *9:17 *9:16 0.5
39 *9:14 *9:13 1.602679
40 *9:15 *9:14 0.5
41 *9:13 *58:A1 1
42 *9:45 *9:44 0.2714286
43 *9:44 *9:43 3.798214
44 *9:27 *9:26 0.5428572

*END

*D_NET *10 2.807271 //LENGTH 31.220 LUMPCC 0 DR

*CONN
*P *10 I *L 0 *C 25.326 11.120
*I *39:A I *L 0.525653 *C 22.976 11.120
*I *95:A1 I *L 0.621599 *C 19.024 9.600
*I *86:A1 I *L 0.621599 *C 19.480 6.256
*I *76:A1 I *L 0.564384 *C 21.000 4.736
*I *107:A1 I *L 0.564384 *C 19.176 11.424
*I *114:A1 I *L 0.564384 *C 14.008 11.424
*I *49:A1 I *L 0.564384 *C 12.032 8.080
*I *66:A1 I *L 0.564384 *C 10.664 8.080
*I *119:A1 I *L 0.564384 *C 11.880 5.952
*N *10:10 *C 11.880 5.953
*N *10:11 *C 10.664 7.948
*N *10:12 *C 10.664 8.068
*N *10:13 *C 10.678 8.080
*N *10:14 *C 11.867 8.080
*N *10:15 *C 11.880 8.080
*N *10:16 *C 12.032 8.081
*N *10:17 *C 12.032 10.815
*N *10:18 *C 12.033 10.816
*N *10:19 *C 14.008 11.423
*N *10:20 *C 14.008 10.830
*N *10:21 *C 14.008 10.816
*N *10:22 *C 19.176 11.423
*N *10:23 *C 21.000 4.737
*N *10:24 *C 21.000 6.243
*N *10:25 *C 20.986 6.256
*N *10:26 *C 19.480 6.074
*N *10:27 *C 19.480 6.244
*N *10:28 *C 19.480 6.256
*N *10:29 *C 19.038 6.256
*N *10:30 *C 19.024 6.270
*N *10:31 *C 19.024 9.600
*N *10:32 *C 19.024 11.120
*N *10:33 *C 19.176 11.120
*N *10:34 *C 19.176 10.830
*N *10:35 *C 19.176 10.816
*N *10:36 *C 22.520 10.816
*N *10:37 *C 22.520 11.120
*N *10:38 *C 22.976 10.938
*N *10:39 *C 22.976 11.107
*N *10:40 *C 22.976 11.120

*CAP
0 *10 0.06587093
1 *39:A 0.001
2 *95:A1 0.001
3 *86:A1 0.001
4 *76:A1 0.001
5 *107:A1 0.001
6 *114:A1 0.001
7 *49:A1 0.001
8 *66:A1 0.001
9 *119:A1 0.001
10 *10:10 0.116931
11 *10:11 0.01266655
12 *10:12 0.006482424
13 *10:13 0.0568632
14 *10:14 0.05834573
15 *10:15 0.1266516
16 *10:16 0.1827495
17 *10:17 0.175316
18 *10:18 0.07558937
19 *10:19 0.04076643
20 *10:20 0.04190997
21 *10:21 0.2745949
22 *10:22 0.01096057
23 *10:23 0.08241083
24 *10:24 0.08355436
25 *10:25 0.05619584
26 *10:26 0.01659903
27 *10:27 0.01189743
28 *10:28 0.07455391
29 *10:29 0.01657904
30 *10:30 0.2089536
31 *10:31 0.2991588
32 *10:32 0.09884173
33 *10:33 0.04047163
34 *10:34 0.01731638
35 *10:35 0.306968
36 *10:36 0.1196363
37 *10:37 0.02391042
38 *10:38 0.0110598
39 *10:39 0.006358198
40 *10:40 0.07810755

*RES
0 *10 *10:40 4.196429
1 *10:39 *39:A 1
2 *10:39 *10:38 0.2825
3 *10:40 *10:39 0.5
4 *10:40 *10:37 0.8142858
5 *10:24 *10:23 2.688393
6 *10:25 *10:24 0.5
7 *10:23 *76:A1 1
8 *10:27 *86:A1 1
9 *10:27 *10:26 0.2825
10 *10:28 *10:27 0.5
11 *10:28 *10:25 2.690179
12 *10:22 *107:A1 1
13 *10:34 *10:33 0.5187501
14 *10:35 *10:34 0.5
15 *10:35 *10:21 9.228571
16 *10:31 *95:A1 1
17 *10:31 *10:30 5.947322
18 *10:30 *10:29 0.5
19 *10:29 *10:28 0.7901787
20 *10:20 *10:19 1.059821
21 *10:21 *10:20 0.5
22 *10:21 *10:18 3.526786
23 *10:19 *114:A1 1
24 *10:17 *10:16 4.882143
25 *10:18 *10:17 0.5
26 *10:16 *49:A1 1
27 *10:16 *10:15 0.2714286
28 *10:10 *119:A1 1
29 *10:15 *10:14 0.5
30 *10:15 *10:10 3.798214
31 *10:14 *10:13 2.123214
32 *10:12 *66:A1 1
33 *10:12 *10:11 0.1991667
34 *10:13 *10:12 0.5
35 *10:32 *10:31 2.714286
36 *10:33 *10:32 0.2714286
37 *10:33 *10:22 0.5410715
38 *10:36 *10:35 5.971429
39 *10:37 *10:36 0.5428572

*END

*D_NET *11 4.451978 //LENGTH 51.077 LUMPCC 0 DR

*CONN
*P *11 I *L 0 *C 18.872 13.774
*I *96:A1 I *L 0.621599 *C 17.808 9.600
*I *87:A1 I *L 0.621599 *C 18.112 6.256
*I *64:A1 I *L 0.621599 *C 19.784 4.432
*I *80:A1 I *L 0.621599 *C 22.216 4.432
*I *42:A3 I *L 0.475427 *C 13.704 9.296
*I *74:A1 I *L 0.621599 *C 7.016 4.432
*I *101:A1 I *L 0.621599 *C 4.432 4.432
*I *71:A1 I *L 0.621599 *C 8.384 4.432
*I *108:A1 I *L 0.621599 *C 7.320 6.256
*I *44:A4 I *L 0.462068 *C 10.512 6.256
*I *48:S1 I *L 3.068698 *C 12.032 3.520
*I *52:A1 I *L 0.559408 *C 11.728 4.432
*I *90:S1 I *L 3.068698 *C 8.232 10.208
*I *38:A I *L 0.525653 *C 20.240 9.600
*N *11:15 *C 20.240 9.614
*N *11:16 *C 20.240 9.891
*N *11:17 *C 20.227 9.904
*N *11:18 *C 8.232 10.194
*N *11:19 *C 8.232 9.918
*N *11:20 *C 8.245 9.904
*N *11:21 *C 11.728 4.418
*N *11:22 *C 12.019 3.520
*N *11:23 *C 11.728 3.520
*N *11:24 *C 11.715 3.520
*N *11:25 *C 11.286 3.520
*N *11:26 *C 11.272 3.534
*N *11:27 *C 11.272 4.736
*N *11:28 *C 11.120 4.736
*N *11:29 *C 11.120 6.243
*N *11:30 *C 11.107 6.256
*N *11:31 *C 10.512 6.074
*N *11:32 *C 10.512 6.244
*N *11:33 *C 10.512 6.256
*N *11:34 *C 7.320 6.074
*N *11:35 *C 7.320 6.244
*N *11:36 *C 7.333 6.256
*N *11:37 *C 8.383 4.432
*N *11:38 *C 4.432 4.418
*N *11:39 *C 4.432 3.838
*N *11:40 *C 4.446 3.824
*N *11:41 *C 7.016 4.418
*N *11:42 *C 7.016 3.838
*N *11:43 *C 7.016 3.824
*N *11:44 *C 7.915 3.824
*N *11:45 *C 7.928 3.838
*N *11:46 *C 7.928 4.432
*N *11:47 *C 7.928 6.243
*N *11:48 *C 7.928 6.256
*N *11:49 *C 8.688 6.256
*N *11:50 *C 8.688 6.270
*N *11:51 *C 8.688 9.891
*N *11:52 *C 8.688 9.904
*N *11:53 *C 13.704 9.309
*N *11:54 *C 13.704 9.891
*N *11:55 *C 13.704 9.904
*N *11:56 *C 22.216 4.446
*N *11:57 *C 22.216 5.635
*N *11:58 *C 22.203 5.648
*N *11:59 *C 19.784 4.446
*N *11:60 *C 19.784 5.635
*N *11:61 *C 19.784 5.648
*N *11:62 *C 18.126 5.648
*N *11:63 *C 18.112 5.662
*N *11:64 *C 18.112 6.256
*N *11:65 *C 17.808 9.601
*N *11:66 *C 17.808 9.904
*N *11:67 *C 18.112 9.891
*N *11:68 *C 18.112 9.904
*N *11:69 *C 18.720 9.904
*N *11:70 *C 18.720 9.918
*N *11:71 *C 18.720 11.728
*N *11:72 *C 18.872 11.728

*CAP
0 *11 0.07403843
1 *96:A1 0.001
2 *87:A1 0.001
3 *64:A1 0.001
4 *80:A1 0.001
5 *42:A3 0.001
6 *74:A1 0.001
7 *101:A1 0.001
8 *71:A1 0.001
9 *108:A1 0.001
10 *44:A4 0.001
11 *48:S1 0.001
12 *52:A1 0.001
13 *90:S1 0.001
14 *38:A 0.001
15 *11:15 0.01182295
16 *11:16 0.01296648
17 *11:17 0.06905334
18 *11:18 0.02175683
19 *11:19 0.02290036
20 *11:20 0.01965049
21 *11:21 0.05447845
22 *11:22 0.01025689
23 *11:23 0.06880145
24 *11:24 0.02011381
25 *11:25 0.02011381
26 *11:26 0.07784789
27 *11:27 0.08689246
28 *11:28 0.08305591
29 *11:29 0.07401136
30 *11:30 0.02724403
31 *11:31 0.01549738
32 *11:32 0.01079578
33 *11:33 0.1033676